# generated using pymatgen
data_Ga2O3
_symmetry_space_group_name_H-M   'P 1'
_cell_length_a   4.99739839
_cell_length_b   4.99739839
_cell_length_c   13.45064931
_cell_angle_alpha   90.00000000
_cell_angle_beta   90.00000000
_cell_angle_gamma   120.00000000
_symmetry_Int_Tables_number   1
_chemical_formula_structural   Ga2O3
_chemical_formula_sum   'Ga12 O18'
_cell_volume   290.91212723
_cell_formula_units_Z   6
loop_
 _symmetry_equiv_pos_site_id
 _symmetry_equiv_pos_as_xyz
  1  'x, y, z'
loop_
 _atom_type_symbol
 _atom_type_oxidation_number
  Ga3+  3.0
  O2-  -2.0
loop_
 _atom_site_type_symbol
 _atom_site_label
 _atom_site_symmetry_multiplicity
 _atom_site_fract_x
 _atom_site_fract_y
 _atom_site_fract_z
 _atom_site_occupancy
  Ga3+  Ga0  1  0.66666667  0.33333333  0.18891891  1
  Ga3+  Ga1  1  0.33333333  0.66666667  0.31108109  1
  Ga3+  Ga2  1  0.00000000  0.00000000  0.14441442  1
  Ga3+  Ga3  1  0.33333333  0.66666667  0.02225225  1
  Ga3+  Ga4  1  0.33333333  0.66666667  0.52225225  1
  Ga3+  Ga5  1  0.00000000  0.00000000  0.64441442  1
  Ga3+  Ga6  1  0.66666667  0.33333333  0.47774775  1
  Ga3+  Ga7  1  0.00000000  0.00000000  0.35558558  1
  Ga3+  Ga8  1  0.00000000  0.00000000  0.85558558  1
  Ga3+  Ga9  1  0.66666667  0.33333333  0.97774775  1
  Ga3+  Ga10  1  0.33333333  0.66666667  0.81108109  1
  Ga3+  Ga11  1  0.66666667  0.33333333  0.68891891  1
  O2-  O12  1  0.66666667  0.03016615  0.08333333  1
  O2-  O13  1  0.36349949  0.33333333  0.08333333  1
  O2-  O14  1  0.96983385  0.63650051  0.08333333  1
  O2-  O15  1  0.00000000  0.30316718  0.25000000  1
  O2-  O16  1  0.69683282  0.69683282  0.25000000  1
  O2-  O17  1  0.30316718  0.00000000  0.25000000  1
  O2-  O18  1  0.33333333  0.36349949  0.41666667  1
  O2-  O19  1  0.03016615  0.66666667  0.41666667  1
  O2-  O20  1  0.63650051  0.96983385  0.41666667  1
  O2-  O21  1  0.66666667  0.63650051  0.58333333  1
  O2-  O22  1  0.36349949  0.03016615  0.58333333  1
  O2-  O23  1  0.96983385  0.33333333  0.58333333  1
  O2-  O24  1  0.00000000  0.69683282  0.75000000  1
  O2-  O25  1  0.69683282  0.00000000  0.75000000  1
  O2-  O26  1  0.30316718  0.30316718  0.75000000  1
  O2-  O27  1  0.33333333  0.96983385  0.91666667  1
  O2-  O28  1  0.03016615  0.36349949  0.91666667  1
  O2-  O29  1  0.63650051  0.66666667  0.91666667  1
